  Page 1                                    Thu Jul 18 11:58:26 2019

  ******************************************************************
  *                           E P A N E T                          *
  *                   Hydraulic and Water Quality                  *
  *                   Analysis for Pipe Networks                   *
  *                         Version 2.00.12                        *
  ******************************************************************
  
  Analysis begun Thu Jul 18 11:58:26 2019

  Analysis ended Thu Jul 18 11:58:26 2019
